Circuit: * D:\ASIC\lib\Draft1.asc

Direct Newton iteration for .op point succeeded.

Date: Sat Feb 09 23:12:33 2019
Total elapsed time: 0.086 seconds.

tnom = 27
temp = 27
method = modified trap
totiter = 3647
traniter = 3619
tranpoints = 1390
accept = 1262
rejected = 128
matrix size = 18
fillins = 0
solver = Normal
Thread vector: 9.5/3.0[2] 1.8/1.0[2] 0.8/0.5[2] 0.2/0.4[1]  2592/500
Matrix Compiler1: 710 bytes object code size  0.2/0.7/[0.0]
Matrix Compiler2: off  [0.1]/0.2/0.2


